1

   Abaqus 2023                                  Date 31-Jul-2025   Time 15:40:07
   For use by BRISTOL under license from Dassault Systemes or its subsidiary.



                         The Abaqus Software is a product of:

                           Dassault Systemes SIMULIA Corp.
                           1301 Atwood Avenue, Suite 101W
                              Johnston, RI 02919, USA
 


                   The Abaqus Software is available only under license
                   from Dassault Systemes or its subsidiary and may be
                   used or reproduced only in accordance with the terms
                   of such license.
 
                          On machine IT106866 
                          you are authorized to run
                          Abaqus/Foundation until 29-Sep-2025

                          Your site id is: R1132101397472 


 
                    For assistance or any other information you may
                    obtain contact information for your local office
                    from the world wide web at:

                      http://www.3ds.com/products/simulia/locations/

 
                * * * * * * * * * * * * * * * * * * * * * * * * * * * * * * 
                *                                                         * 
                *                   *****************                     * 
                *                   *  N O T I C E  *                     * 
                *                   *****************                     * 
                *                                                         * 
                *                                                         * 
                *                       Abaqus 2023                       * 
                *                                                         * 
                *          BUILD ID: 2022_09_28-19.11.55 183150           * 
                *                                                         * 
                *                                                         * 
                *  Please make sure you are using                         * 
                *  release Abaqus 2023 manuals                            * 
                *  plus the notes accompanying this release.              * 
                *                                                         * 
                *                                                         * 
                *                                                         * 
                *                                                         * 
                * * * * * * * * * * * * * * * * * * * * * * * * * * * * * * 


 



     PROCESSING PART, INSTANCE, AND ASSEMBLY INFORMATION
   *******************************************************


     END PROCESSING PART, INSTANCE, AND ASSEMBLY INFORMATION
   ***********************************************************




     OPTIONS BEING PROCESSED
   ***************************


  *NODE
  *ELEMENT, TYPE=C3D8R
  *ELSET, ELSET=FACESHEET
  *ELSET, ELSET=CORE
  *NSET, NSET=ZNEG
  *NSET, NSET=ZPOS
  *NSET, NSET=XPOS
  *NSET, NSET=YPOS
  *NSET, NSET=XNEG
  *NSET, NSET=YNEG
  *NSET, NSET=PIN-NODE
  *NSET, NSET=STRAIN
  *NSET, NSET=CURVATURE
  *NSET, NSET=SHEAR
  *MATERIAL, NAME=MAT-CORE
  *ELASTIC
  *MATERIAL, NAME=MAT-FACESHEET
  *ELASTIC
  *ORIENTATION, NAME=GLOBAL, DEFINITION=COORDINATES
  *SOLID SECTION, ELSET=FACESHEET, MATERIAL=MAT-FACESHEET, ORIENTATION=GLOBAL, CONTROLS=EC-1
  *SOLID SECTION, ELSET=CORE, MATERIAL=MAT-CORE, ORIENTATION=GLOBAL, CONTROLS=EC-1
  *SECTION CONTROLS, NAME=EC-1, HOURGLASS=ENHANCED

 ***WARNING: THE PARAMETER HOURGLASS = ENHANCED ON THE SECTION CONTROLS OPTION 
             IS RELEVANT FOR THESE ELEMENTS: C3D8R, CAX4R, CGAX4R, CPEG4R, 
             CPE4R, CPS4R, M3D4R, S4R, SC8R AND THEIR HYBRID, THERMAL AND 
             PRESSURE COUNTERPARTS WHEREVER APPLICABLE. IT IS ALSO RELEVANT FOR 
             ALL TYPES OF MODIFIED TRIANGULAR AND TETRAHEDRAL ELEMENTS. THIS 
             WARNING CAN BE IGNORED IF THE FEATURE IS APPLIED TO THESE ELEMENT 
             TYPES ONLY.
  *SOLID SECTION, ELSET=FACESHEET, MATERIAL=MAT-FACESHEET, ORIENTATION=GLOBAL, CONTROLS=EC-1
  *SOLID SECTION, ELSET=CORE, MATERIAL=MAT-CORE, ORIENTATION=GLOBAL, CONTROLS=EC-1
  *BOUNDARY
  *BOUNDARY, OP=NEW
  *BOUNDARY, OP=NEW
  *BOUNDARY, OP=NEW
  *BOUNDARY, OP=NEW
  *BOUNDARY, OP=NEW
  *BOUNDARY, OP=NEW
  *BOUNDARY
  *BOUNDARY, OP=NEW
  *BOUNDARY, OP=NEW
  *BOUNDARY, OP=NEW
  *BOUNDARY, OP=NEW
  *BOUNDARY, OP=NEW
  *BOUNDARY, OP=NEW
  *EQUATION
  *OUTPUT, FIELD
  *OUTPUT, FIELD, VARIABLE=PRESELECT
  *OUTPUT, HISTORY, FREQUENCY=0
  *ELEMENT OUTPUT, DIRECTIONS=YES
  *OUTPUT, FIELD
  *OUTPUT, FIELD, VARIABLE=PRESELECT
  *OUTPUT, HISTORY, FREQUENCY=0
  *ELEMENT OUTPUT, DIRECTIONS=YES
  *OUTPUT, FIELD
  *OUTPUT, FIELD, VARIABLE=PRESELECT
  *OUTPUT, HISTORY, FREQUENCY=0
  *ELEMENT OUTPUT, DIRECTIONS=YES

 ***NOTE: MPCS (EXTERNAL or INTERNAL, including those generated from rigid body 
          definitions), KINEMATIC COUPLINGS, AND/OR EQUATIONS WILL ACTIVATE 
          ADDITIONAL DEGREES OF FREEDOM
  
                               E L E M E N T   Q U A L I T Y  C H E C K S        
  
  
 ***NOTES: DISTORTED ISOPARAMETRIC ELEMENTS: ANGLE BETWEEN ISOPARAMETRIC LINES 
           IS LESS THAN 45 DEGREES OR GREATER THAN 135 DEGREES.
  
           TETRAHEDRAL QUALITY MEASURE: VOLUME OF TETRAHEDRON DIVIDED BY THE 
           VOLUME OF EQUILATERAL TETRAHEDRON WITH SAME CIRCUMSPHERE RADIUS; 
           0 FOR DEGENERATE TETRAHEDRON AND 1 FOR EQUILATERIAL TETRAHEDRON. IT 
           IS RECOMMENDED THAT THE TETRAHEDRAL QUALITY MEASURE BE GREATER THAN 
           0.02, THE MIN INTERIOR (DIHEDRAL) ANGLE BE GREATER THAN 10 DEGREES, 
           AND THE MAX INTERIOR (DIHEDRAL) ANGLE BE LESS THAN 160 DEGREES. 
  
           MODIFIED TETRAHEDRAL QUALITY MEASURE: ANGLES BETWEEN THE TWO LINE 
           SEGMENTS ON EACH EDGE; THE EDGES OF MODIFIED TETRAHEDRAL SHOULD BE 
           AS STRAIGHT AS POSSIBLE. IT IS RECOMMENDED THAT THE ANGLE BETWEEN 
           THE TWO LINE SEGMENTS ON EACH EDGE IS BETWEEN 160 AND 180 DEGREES. 
  
           TRIANGULAR QUALITY MEASURE: AREA OF TRIANGLE DIVIDED BY THE AREA OF 
           EQUILATERAL TRIANGLE WITH SAME CIRCUMCIRCLE RADIUS; 0 FOR DEGENERATE 
           TRIANGLE AND 1 FOR EQUILATERAL TRIANGLE. IT IS RECOMMENDED THAT THE
           TRIANGULAR QUALITY MEASURE BE GREATER THAN 0.01, THE MIN INTERIOR 
           ANGLE BE GREATER THAN 10 DEGREES, AND THE MAX INTERIOR ANGLE BE LESS 
           THAN 160 DEGREES. 
  
           NODAL ADJUSTMENTS ARISING FROM CONTACT INTERACTIONS AND/OR TIE 
           CONSTRAINTS CAN CAUSE SEVERE ELEMENT DISTORTION. IT MAY BE NECESSARY 
           TO REMESH IN ORDER TO REDUCE THE AMOUNT OF ADJUSTMENT. 

 ***WARNING: 2304 elements are distorted. Either the isoparametric angles are 
             out of the suggested limits or the triangular or tetrahedral 
             quality measure is bad. The elements have been identified in 
             element set WarnElemDistorted.
  
 --------------------------------------------------------------------------------
 Distorted isoparametric elements
  
  Element   Min/max angle   Adjusted nodes 
 --------- ---------------- -------------- 
         9          41.4447       NO       
        10          38.3108       NO       
        11          35.5577       NO       
        12          33.1307       NO       
        13          30.9825       NO       
        22          41.4447       NO       
        23          38.3108       NO       
        24          35.5577       NO       
        25          33.1307       NO       
        26          30.9825       NO       
        35          41.4447       NO       
        36          38.3108       NO       
        37          35.5577       NO       
        38          33.1307       NO       
        39          30.9825       NO       
        48          41.4447       NO       
        49          38.3108       NO       
        50          35.5577       NO       
        51          33.1307       NO       
        52          30.9825       NO       
        61          41.4447       NO       
        62          38.3108       NO       
        63          35.5577       NO       
        64          33.1307       NO       
        65          30.9825       NO       
        74          41.4447       NO       
        75          38.3108       NO       
        76          35.5577       NO       
        77          33.1307       NO       
        78          30.9825       NO       
        87          41.4447       NO       
        88          38.3108       NO       
        89          35.5577       NO       
        90          33.1307       NO       
        91          30.9825       NO       
       100          41.4447       NO       
       101          38.3108       NO       
       102          35.5577       NO       
       103          33.1307       NO       
       104          30.9825       NO       
       113          41.4447       NO       
       114          38.3108       NO       
       115          35.5577       NO       
       116          33.1307       NO       
       117          30.9825       NO       
       126          41.4447       NO       
       127          38.3108       NO       
       128          35.5577       NO       
       129          33.1307       NO       
       130          30.9825       NO       
       139          41.4447       NO       
       140          38.3108       NO       
       141          35.5577       NO       
       142          33.1307       NO       
       143          30.9825       NO       
       152          41.4447       NO       
       153          38.3108       NO       
       154          35.5577       NO       
       155          33.1307       NO       
       156          30.9825       NO       
       157          30.9825       NO       
       158          33.1307       NO       
       159          35.5577       NO       
       160          38.3108       NO       
       161          41.4447       NO       
       170          30.9825       NO       
       171          33.1307       NO       
       172          35.5577       NO       
       173          38.3108       NO       
       174          41.4447       NO       
       183          30.9825       NO       
       184          33.1307       NO       
       185          35.5577       NO       
       186          38.3108       NO       
       187          41.4447       NO       
       196          30.9825       NO       
       197          33.1307       NO       
       198          35.5577       NO       
       199          38.3108       NO       
       200          41.4447       NO       
       209          30.9825       NO       
       210          33.1307       NO       
       211          35.5577       NO       
       212          38.3108       NO       
       213          41.4447       NO       
       222          30.9825       NO       
       223          33.1307       NO       
       224          35.5577       NO       
       225          38.3108       NO       
       226          41.4447       NO       
       235          30.9825       NO       
       236          33.1307       NO       
       237          35.5577       NO       
       238          38.3108       NO       
       239          41.4447       NO       
       248          30.9825       NO       
       249          33.1307       NO       
       250          35.5577       NO       
       251          38.3108       NO       
       252          41.4447       NO       
       261          30.9825       NO       
       262          33.1307       NO       
       263          35.5577       NO       
       264          38.3108       NO       
       265          41.4447       NO       
       274          30.9825       NO       
       275          33.1307       NO       
       276          35.5577       NO       
       277          38.3108       NO       
       278          41.4447       NO       
       287          30.9825       NO       
       288          33.1307       NO       
       289          35.5577       NO       
       290          38.3108       NO       
       291          41.4447       NO       
       300          30.9825       NO       
       301          33.1307       NO       
       302          35.5577       NO       
       303          38.3108       NO       
       304          41.4447       NO       
       341              30.       NO       
       342              30.       NO       
       343              30.       NO       
       344              30.       NO       
       345              30.       NO       
       346              30.       NO       
       347              30.       NO       
       348              30.       NO       
       349              30.       NO       
       350              30.       NO       
       351              30.       NO       
       352              30.       NO       
       353              30.       NO       
       354              30.       NO       
       355              30.       NO       
       356              30.       NO       
       357              30.       NO       
       358              30.       NO       
       359              30.       NO       
       360              30.       NO       
       361              30.       NO       
       362              30.       NO       
       363              30.       NO       
       364              30.       NO       
       533              30.       NO       
       534              30.       NO       
       535              30.       NO       
       536              30.       NO       
       537              30.       NO       
       538              30.       NO       
       539              30.       NO       
       540              30.       NO       
       541              30.       NO       
       542              30.       NO       
       543              30.       NO       
       544              30.       NO       
       545              30.       NO       
       546              30.       NO       
       547              30.       NO       
       548              30.       NO       
       549              30.       NO       
       550              30.       NO       
       551              30.       NO       
       552              30.       NO       
       553              30.       NO       
       554              30.       NO       
       555              30.       NO       
       556              30.       NO       
       557              30.       NO       
       558              30.       NO       
       559              30.       NO       
       560              30.       NO       
       561              30.       NO       
       562              30.       NO       
       563              30.       NO       
       564              30.       NO       
       565              30.       NO       
       566              30.       NO       
       567              30.       NO       
       568              30.       NO       
       569              30.       NO       
       570              30.       NO       
       571              30.       NO       
       572              30.       NO       
       573              30.       NO       
       574              30.       NO       
       575              30.       NO       
       576              30.       NO       
       577              30.       NO       
       578              30.       NO       
       579              30.       NO       
       580              30.       NO       
       581              30.       NO       
       582              30.       NO       
       583              30.       NO       
       584              30.       NO       
       585              30.       NO       
       586              30.       NO       
       587              30.       NO       
       588              30.       NO       
       589              30.       NO       
       590              30.       NO       
       591              30.       NO       
       592              30.       NO       
       593              30.       NO       
       594              30.       NO       
       595              30.       NO       
       596              30.       NO       
       597              30.       NO       
       598              30.       NO       
       599              30.       NO       
       600              30.       NO       
       601              30.       NO       
       602              30.       NO       
       603              30.       NO       
       604              30.       NO       
       605              30.       NO       
       606              30.       NO       
       607              30.       NO       
       608              30.       NO       
       609              30.       NO       
       610              30.       NO       
       611              30.       NO       
       612              30.       NO       
       613              30.       NO       
       614              30.       NO       
       615              30.       NO       
       616              30.       NO       
       617              30.       NO       
       618              30.       NO       
       619              30.       NO       
       620              30.       NO       
       621              30.       NO       
       622              30.       NO       
       623              30.       NO       
       624              30.       NO       
       625              30.       NO       
       626              30.       NO       
       627              30.       NO       
       628              30.       NO       
       629              30.       NO       
       630              30.       NO       
       631              30.       NO       
       632              30.       NO       
       633              30.       NO       
       634              30.       NO       
       635              30.       NO       
       636              30.       NO       
       637              30.       NO       
       638              30.       NO       
       639              30.       NO       
       640              30.       NO       
       641              30.       NO       
       642              30.       NO       
       643              30.       NO       
       644              30.       NO       
       645              30.       NO       
       646              30.       NO       
       647              30.       NO       
       648              30.       NO       
       649              30.       NO       
       650              30.       NO       
       651              30.       NO       
       652              30.       NO       
       653              30.       NO       
       654              30.       NO       
       655              30.       NO       
       656              30.       NO       
       657              30.       NO       
       658              30.       NO       
       659              30.       NO       
       660              30.       NO       
       661              30.       NO       
       662              30.       NO       
       663              30.       NO       
       664              30.       NO       
       665              30.       NO       
       666              30.       NO       
       667              30.       NO       
       668              30.       NO       
       669              30.       NO       
       670              30.       NO       
       671              30.       NO       
       672              30.       NO       
       673              30.       NO       
       674              30.       NO       
       675              30.       NO       
       676              30.       NO       
       685          41.4447       NO       
       686          38.3108       NO       
       687          35.5577       NO       
       688          33.1307       NO       
       689          30.9825       NO       
       698          41.4447       NO       
       699          38.3108       NO       
       700          35.5577       NO       
       701          33.1307       NO       
       702          30.9825       NO       
       711          41.4447       NO       
       712          38.3108       NO       
       713          35.5577       NO       
       714          33.1307       NO       
       715          30.9825       NO       
       724          41.4447       NO       
       725          38.3108       NO       
       726          35.5577       NO       
       727          33.1307       NO       
       728          30.9825       NO       
       737          41.4447       NO       
       738          38.3108       NO       
       739          35.5577       NO       
       740          33.1307       NO       
       741          30.9825       NO       
       750          41.4447       NO       
       751          38.3108       NO       
       752          35.5577       NO       
       753          33.1307       NO       
       754          30.9825       NO       
       763          41.4447       NO       
       764          38.3108       NO       
       765          35.5577       NO       
       766          33.1307       NO       
       767          30.9825       NO       
       776          41.4447       NO       
       777          38.3108       NO       
       778          35.5577       NO       
       779          33.1307       NO       
       780          30.9825       NO       
       789          41.4447       NO       
       790          38.3108       NO       
       791          35.5577       NO       
       792          33.1307       NO       
       793          30.9825       NO       
       802          41.4447       NO       
       803          38.3108       NO       
       804          35.5577       NO       
       805          33.1307       NO       
       806          30.9825       NO       
       815          41.4447       NO       
       816          38.3108       NO       
       817          35.5577       NO       
       818          33.1307       NO       
       819          30.9825       NO       
       828          41.4447       NO       
       829          38.3108       NO       
       830          35.5577       NO       
       831          33.1307       NO       
       832          30.9825       NO       
       833          30.9825       NO       
       834          33.1307       NO       
       835          35.5577       NO       
       836          38.3108       NO       
       837          41.4447       NO       
       846          30.9825       NO       
       847          33.1307       NO       
       848          35.5577       NO       
       849          38.3108       NO       
       850          41.4447       NO       
       859          30.9825       NO       
       860          33.1307       NO       
       861          35.5577       NO       
       862          38.3108       NO       
       863          41.4447       NO       
       872          30.9825       NO       
       873          33.1307       NO       
       874          35.5577       NO       
       875          38.3108       NO       
       876          41.4447       NO       
       885          30.9825       NO       
       886          33.1307       NO       
       887          35.5577       NO       
       888          38.3108       NO       
       889          41.4447       NO       
       898          30.9825       NO       
       899          33.1307       NO       
       900          35.5577       NO       
       901          38.3108       NO       
       902          41.4447       NO       
       911          30.9825       NO       
       912          33.1307       NO       
       913          35.5577       NO       
       914          38.3108       NO       
       915          41.4447       NO       
       924          30.9825       NO       
       925          33.1307       NO       
       926          35.5577       NO       
       927          38.3108       NO       
       928          41.4447       NO       
       937          30.9825       NO       
       938          33.1307       NO       
       939          35.5577       NO       
       940          38.3108       NO       
       941          41.4447       NO       
       950          30.9825       NO       
       951          33.1307       NO       
       952          35.5577       NO       
       953          38.3108       NO       
       954          41.4447       NO       
       963          30.9825       NO       
       964          33.1307       NO       
       965          35.5577       NO       
       966          38.3108       NO       
       967          41.4447       NO       
       976          30.9825       NO       
       977          33.1307       NO       
       978          35.5577       NO       
       979          38.3108       NO       
       980          41.4447       NO       
      1017              30.       NO       
      1018              30.       NO       
      1019              30.       NO       
      1020              30.       NO       
      1021              30.       NO       
      1022              30.       NO       
      1023              30.       NO       
      1024              30.       NO       
      1025              30.       NO       
      1026              30.       NO       
      1027              30.       NO       
      1028              30.       NO       
      1029              30.       NO       
      1030              30.       NO       
      1031              30.       NO       
      1032              30.       NO       
      1033              30.       NO       
      1034              30.       NO       
      1035              30.       NO       
      1036              30.       NO       
      1037              30.       NO       
      1038              30.       NO       
      1039              30.       NO       
      1040              30.       NO       
      1209              30.       NO       
      1210              30.       NO       
      1211              30.       NO       
      1212              30.       NO       
      1213              30.       NO       
      1214              30.       NO       
      1215              30.       NO       
      1216              30.       NO       
      1217              30.       NO       
      1218              30.       NO       
      1219              30.       NO       
      1220              30.       NO       
      1221              30.       NO       
      1222              30.       NO       
      1223              30.       NO       
      1224              30.       NO       
      1225              30.       NO       
      1226              30.       NO       
      1227              30.       NO       
      1228              30.       NO       
      1229              30.       NO       
      1230              30.       NO       
      1231              30.       NO       
      1232              30.       NO       
      1233              30.       NO       
      1234              30.       NO       
      1235              30.       NO       
      1236              30.       NO       
      1237              30.       NO       
      1238              30.       NO       
      1239              30.       NO       
      1240              30.       NO       
      1241              30.       NO       
      1242              30.       NO       
      1243              30.       NO       
      1244              30.       NO       
      1245              30.       NO       
      1246              30.       NO       
      1247              30.       NO       
      1248              30.       NO       
      1249              30.       NO       
      1250              30.       NO       
      1251              30.       NO       
      1252              30.       NO       
      1253              30.       NO       
      1254              30.       NO       
      1255              30.       NO       
      1256              30.       NO       
      1257              30.       NO       
      1258              30.       NO       
      1259              30.       NO       
      1260              30.       NO       
      1261              30.       NO       
      1262              30.       NO       
      1263              30.       NO       
      1264              30.       NO       
      1265              30.       NO       
      1266              30.       NO       
      1267              30.       NO       
      1268              30.       NO       
      1269              30.       NO       
      1270              30.       NO       
      1271              30.       NO       
      1272              30.       NO       
      1273              30.       NO       
      1274              30.       NO       
      1275              30.       NO       
      1276              30.       NO       
      1277              30.       NO       
      1278              30.       NO       
      1279              30.       NO       
      1280              30.       NO       
      1281              30.       NO       
      1282              30.       NO       
      1283              30.       NO       
      1284              30.       NO       
      1285              30.       NO       
      1286              30.       NO       
      1287              30.       NO       
      1288              30.       NO       
      1289              30.       NO       
      1290              30.       NO       
      1291              30.       NO       
      1292              30.       NO       
      1293              30.       NO       
      1294              30.       NO       
      1295              30.       NO       
      1296              30.       NO       
      1297              30.       NO       
      1298              30.       NO       
      1299              30.       NO       
      1300              30.       NO       
      1301              30.       NO       
      1302              30.       NO       
      1303              30.       NO       
      1304              30.       NO       
      1305              30.       NO       
      1306              30.       NO       
      1307              30.       NO       
      1308              30.       NO       
      1309              30.       NO       
      1310              30.       NO       
      1311              30.       NO       
      1312              30.       NO       
      1313              30.       NO       
      1314              30.       NO       
      1315              30.       NO       
      1316              30.       NO       
      1317              30.       NO       
      1318              30.       NO       
      1319              30.       NO       
      1320              30.       NO       
      1321              30.       NO       
      1322              30.       NO       
      1323              30.       NO       
      1324              30.       NO       
      1325              30.       NO       
      1326              30.       NO       
      1327              30.       NO       
      1328              30.       NO       
      1329              30.       NO       
      1330              30.       NO       
      1331              30.       NO       
      1332              30.       NO       
      1333              30.       NO       
      1334              30.       NO       
      1335              30.       NO       
      1336              30.       NO       
      1337              30.       NO       
      1338              30.       NO       
      1339              30.       NO       
      1340              30.       NO       
      1341              30.       NO       
      1342              30.       NO       
      1343              30.       NO       
      1344              30.       NO       
      1345              30.       NO       
      1346              30.       NO       
      1347              30.       NO       
      1348              30.       NO       
      1349              30.       NO       
      1350              30.       NO       
      1351              30.       NO       
      1352              30.       NO       
      1361          41.4447       NO       
      1362          38.3108       NO       
      1363          35.5577       NO       
      1364          33.1307       NO       
      1365          30.9825       NO       
      1374          41.4447       NO       
      1375          38.3108       NO       
      1376          35.5577       NO       
      1377          33.1307       NO       
      1378          30.9825       NO       
      1387          41.4447       NO       
      1388          38.3108       NO       
      1389          35.5577       NO       
      1390          33.1307       NO       
      1391          30.9825       NO       
      1400          41.4447       NO       
      1401          38.3108       NO       
      1402          35.5577       NO       
      1403          33.1307       NO       
      1404          30.9825       NO       
      1413          41.4447       NO       
      1414          38.3108       NO       
      1415          35.5577       NO       
      1416          33.1307       NO       
      1417          30.9825       NO       
      1426          41.4447       NO       
      1427          38.3108       NO       
      1428          35.5577       NO       
      1429          33.1307       NO       
      1430          30.9825       NO       
      1439          41.4447       NO       
      1440          38.3108       NO       
      1441          35.5577       NO       
      1442          33.1307       NO       
      1443          30.9825       NO       
      1452          41.4447       NO       
      1453          38.3108       NO       
      1454          35.5577       NO       
      1455          33.1307       NO       
      1456          30.9825       NO       
      1465          41.4447       NO       
      1466          38.3108       NO       
      1467          35.5577       NO       
      1468          33.1307       NO       
      1469          30.9825       NO       
      1478          41.4447       NO       
      1479          38.3108       NO       
      1480          35.5577       NO       
      1481          33.1307       NO       
      1482          30.9825       NO       
      1491          41.4447       NO       
      1492          38.3108       NO       
      1493          35.5577       NO       
      1494          33.1307       NO       
      1495          30.9825       NO       
      1504          41.4447       NO       
      1505          38.3108       NO       
      1506          35.5577       NO       
      1507          33.1307       NO       
      1508          30.9825       NO       
      1509          30.9825       NO       
      1510          33.1307       NO       
      1511          35.5577       NO       
      1512          38.3108       NO       
      1513          41.4447       NO       
      1522          30.9825       NO       
      1523          33.1307       NO       
      1524          35.5577       NO       
      1525          38.3108       NO       
      1526          41.4447       NO       
      1535          30.9825       NO       
      1536          33.1307       NO       
      1537          35.5577       NO       
      1538          38.3108       NO       
      1539          41.4447       NO       
      1548          30.9825       NO       
      1549          33.1307       NO       
      1550          35.5577       NO       
      1551          38.3108       NO       
      1552          41.4447       NO       
      1561          30.9825       NO       
      1562          33.1307       NO       
      1563          35.5577       NO       
      1564          38.3108       NO       
      1565          41.4447       NO       
      1574          30.9825       NO       
      1575          33.1307       NO       
      1576          35.5577       NO       
      1577          38.3108       NO       
      1578          41.4447       NO       
      1587          30.9825       NO       
      1588          33.1307       NO       
      1589          35.5577       NO       
      1590          38.3108       NO       
      1591          41.4447       NO       
      1600          30.9825       NO       
      1601          33.1307       NO       
      1602          35.5577       NO       
      1603          38.3108       NO       
      1604          41.4447       NO       
      1613          30.9825       NO       
      1614          33.1307       NO       
      1615          35.5577       NO       
      1616          38.3108       NO       
      1617          41.4447       NO       
      1626          30.9825       NO       
      1627          33.1307       NO       
      1628          35.5577       NO       
      1629          38.3108       NO       
      1630          41.4447       NO       
      1639          30.9825       NO       
      1640          33.1307       NO       
      1641          35.5577       NO       
      1642          38.3108       NO       
      1643          41.4447       NO       
      1652          30.9825       NO       
      1653          33.1307       NO       
      1654          35.5577       NO       
      1655          38.3108       NO       
      1656          41.4447       NO       
      1693              30.       NO       
      1694              30.       NO       
      1695              30.       NO       
      1696              30.       NO       
      1697              30.       NO       
      1698              30.       NO       
      1699              30.       NO       
      1700              30.       NO       
      1701              30.       NO       
      1702              30.       NO       
      1703              30.       NO       
      1704              30.       NO       
      1705              30.       NO       
      1706              30.       NO       
      1707              30.       NO       
      1708              30.       NO       
      1709              30.       NO       
      1710              30.       NO       
      1711              30.       NO       
      1712              30.       NO       
      1713              30.       NO       
      1714              30.       NO       
      1715              30.       NO       
      1716              30.       NO       
      1885              30.       NO       
      1886              30.       NO       
      1887              30.       NO       
      1888              30.       NO       
      1889              30.       NO       
      1890              30.       NO       
      1891              30.       NO       
      1892              30.       NO       
      1893              30.       NO       
      1894              30.       NO       
      1895              30.       NO       
      1896              30.       NO       
      1897              30.       NO       
      1898              30.       NO       
      1899              30.       NO       
      1900              30.       NO       
      1901              30.       NO       
      1902              30.       NO       
      1903              30.       NO       
      1904              30.       NO       
      1905              30.       NO       
      1906              30.       NO       
      1907              30.       NO       
      1908              30.       NO       
      1909              30.       NO       
      1910              30.       NO       
      1911              30.       NO       
      1912              30.       NO       
      1913              30.       NO       
      1914              30.       NO       
      1915              30.       NO       
      1916              30.       NO       
      1917              30.       NO       
      1918              30.       NO       
      1919              30.       NO       
      1920              30.       NO       
      1921              30.       NO       
      1922              30.       NO       
      1923              30.       NO       
      1924              30.       NO       
      1925              30.       NO       
      1926              30.       NO       
      1927              30.       NO       
      1928              30.       NO       
      1929              30.       NO       
      1930              30.       NO       
      1931              30.       NO       
      1932              30.       NO       
      1933              30.       NO       
      1934              30.       NO       
      1935              30.       NO       
      1936              30.       NO       
      1937              30.       NO       
      1938              30.       NO       
      1939              30.       NO       
      1940              30.       NO       
      1941              30.       NO       
      1942              30.       NO       
      1943              30.       NO       
      1944              30.       NO       
      1945              30.       NO       
      1946              30.       NO       
      1947              30.       NO       
      1948              30.       NO       
      1949              30.       NO       
      1950              30.       NO       
      1951              30.       NO       
      1952              30.       NO       
      1953              30.       NO       
      1954              30.       NO       
      1955              30.       NO       
      1956              30.       NO       
      1957              30.       NO       
      1958              30.       NO       
      1959              30.       NO       
      1960              30.       NO       
      1961              30.       NO       
      1962              30.       NO       
      1963              30.       NO       
      1964              30.       NO       
      1965              30.       NO       
      1966              30.       NO       
      1967              30.       NO       
      1968              30.       NO       
      1969              30.       NO       
      1970              30.       NO       
      1971              30.       NO       
      1972              30.       NO       
      1973              30.       NO       
      1974              30.       NO       
      1975              30.       NO       
      1976              30.       NO       
      1977              30.       NO       
      1978              30.       NO       
      1979              30.       NO       
      1980              30.       NO       
      1981              30.       NO       
      1982              30.       NO       
      1983              30.       NO       
      1984              30.       NO       
      1985              30.       NO       
      1986              30.       NO       
      1987              30.       NO       
      1988              30.       NO       
      1989              30.       NO       
      1990              30.       NO       
      1991              30.       NO       
      1992              30.       NO       
      1993              30.       NO       
      1994              30.       NO       
      1995              30.       NO       
      1996              30.       NO       
      1997              30.       NO       
      1998              30.       NO       
      1999              30.       NO       
      2000              30.       NO       
      2001              30.       NO       
      2002              30.       NO       
      2003              30.       NO       
      2004              30.       NO       
      2005              30.       NO       
      2006              30.       NO       
      2007              30.       NO       
      2008              30.       NO       
      2009              30.       NO       
      2010              30.       NO       
      2011              30.       NO       
      2012              30.       NO       
      2013              30.       NO       
      2014              30.       NO       
      2015              30.       NO       
      2016              30.       NO       
      2017              30.       NO       
      2018              30.       NO       
      2019              30.       NO       
      2020              30.       NO       
      2021              30.       NO       
      2022              30.       NO       
      2023              30.       NO       
      2024              30.       NO       
      2025              30.       NO       
      2026              30.       NO       
      2027              30.       NO       
      2028              30.       NO       
      2037          41.4447       NO       
      2038          38.3108       NO       
      2039          35.5577       NO       
      2040          33.1307       NO       
      2041          30.9825       NO       
      2050          41.4447       NO       
      2051          38.3108       NO       
      2052          35.5577       NO       
      2053          33.1307       NO       
      2054          30.9825       NO       
      2063          41.4447       NO       
      2064          38.3108       NO       
      2065          35.5577       NO       
      2066          33.1307       NO       
      2067          30.9825       NO       
      2076          41.4447       NO       
      2077          38.3108       NO       
      2078          35.5577       NO       
      2079          33.1307       NO       
      2080          30.9825       NO       
      2089          41.4447       NO       
      2090          38.3108       NO       
      2091          35.5577       NO       
      2092          33.1307       NO       
      2093          30.9825       NO       
      2102          41.4447       NO       
      2103          38.3108       NO       
      2104          35.5577       NO       
      2105          33.1307       NO       
      2106          30.9825       NO       
      2115          41.4447       NO       
      2116          38.3108       NO       
      2117          35.5577       NO       
      2118          33.1307       NO       
      2119          30.9825       NO       
      2128          41.4447       NO       
      2129          38.3108       NO       
      2130          35.5577       NO       
      2131          33.1307       NO       
      2132          30.9825       NO       
      2141          41.4447       NO       
      2142          38.3108       NO       
      2143          35.5577       NO       
      2144          33.1307       NO       
      2145          30.9825       NO       
      2154          41.4447       NO       
      2155          38.3108       NO       
      2156          35.5577       NO       
      2157          33.1307       NO       
      2158          30.9825       NO       
      2167          41.4447       NO       
      2168          38.3108       NO       
      2169          35.5577       NO       
      2170          33.1307       NO       
      2171          30.9825       NO       
      2180          41.4447       NO       
      2181          38.3108       NO       
      2182          35.5577       NO       
      2183          33.1307       NO       
      2184          30.9825       NO       
      2185          30.9825       NO       
      2186          33.1307       NO       
      2187          35.5577       NO       
      2188          38.3108       NO       
      2189          41.4447       NO       
      2198          30.9825       NO       
      2199          33.1307       NO       
      2200          35.5577       NO       
      2201          38.3108       NO       
      2202          41.4447       NO       
      2211          30.9825       NO       
      2212          33.1307       NO       
      2213          35.5577       NO       
      2214          38.3108       NO       
      2215          41.4447       NO       
      2224          30.9825       NO       
      2225          33.1307       NO       
      2226          35.5577       NO       
      2227          38.3108       NO       
      2228          41.4447       NO       
      2237          30.9825       NO       
      2238          33.1307       NO       
      2239          35.5577       NO       
      2240          38.3108       NO       
      2241          41.4447       NO       
      2250          30.9825       NO       
      2251          33.1307       NO       
      2252          35.5577       NO       
      2253          38.3108       NO       
      2254          41.4447       NO       
      2263          30.9825       NO       
      2264          33.1307       NO       
      2265          35.5577       NO       
      2266          38.3108       NO       
      2267          41.4447       NO       
      2276          30.9825       NO       
      2277          33.1307       NO       
      2278          35.5577       NO       
      2279          38.3108       NO       
      2280          41.4447       NO       
      2289          30.9825       NO       
      2290          33.1307       NO       
      2291          35.5577       NO       
      2292          38.3108       NO       
      2293          41.4447       NO       
      2302          30.9825       NO       
      2303          33.1307       NO       
      2304          35.5577       NO       
      2305          38.3108       NO       
      2306          41.4447       NO       
      2315          30.9825       NO       
      2316          33.1307       NO       
      2317          35.5577       NO       
      2318          38.3108       NO       
      2319          41.4447       NO       
      2328          30.9825       NO       
      2329          33.1307       NO       
      2330          35.5577       NO       
      2331          38.3108       NO       
      2332          41.4447       NO       
      2369              30.       NO       
      2370              30.       NO       
      2371              30.       NO       
      2372              30.       NO       
      2373              30.       NO       
      2374              30.       NO       
      2375              30.       NO       
      2376              30.       NO       
      2377              30.       NO       
      2378              30.       NO       
      2379              30.       NO       
      2380              30.       NO       
      2381              30.       NO       
      2382              30.       NO       
      2383              30.       NO       
      2384              30.       NO       
      2385              30.       NO       
      2386              30.       NO       
      2387              30.       NO       
      2388              30.       NO       
      2389              30.       NO       
      2390              30.       NO       
      2391              30.       NO       
      2392              30.       NO       
      2561              30.       NO       
      2562              30.       NO       
      2563              30.       NO       
      2564              30.       NO       
      2565              30.       NO       
      2566              30.       NO       
      2567              30.       NO       
      2568              30.       NO       
      2569              30.       NO       
      2570              30.       NO       
      2571              30.       NO       
      2572              30.       NO       
      2573              30.       NO       
      2574              30.       NO       
      2575              30.       NO       
      2576              30.       NO       
      2577              30.       NO       
      2578              30.       NO       
      2579              30.       NO       
      2580              30.       NO       
      2581              30.       NO       
      2582              30.       NO       
      2583              30.       NO       
      2584              30.       NO       
      2585              30.       NO       
      2586              30.       NO       
      2587              30.       NO       
      2588              30.       NO       
      2589              30.       NO       
      2590              30.       NO       
      2591              30.       NO       
      2592              30.       NO       
      2593              30.       NO       
      2594              30.       NO       
      2595              30.       NO       
      2596              30.       NO       
      2597              30.       NO       
      2598              30.       NO       
      2599              30.       NO       
      2600              30.       NO       
      2601              30.       NO       
      2602              30.       NO       
      2603              30.       NO       
      2604              30.       NO       
      2605              30.       NO       
      2606              30.       NO       
      2607              30.       NO       
      2608              30.       NO       
      2609              30.       NO       
      2610              30.       NO       
      2611              30.       NO       
      2612              30.       NO       
      2613              30.       NO       
      2614              30.       NO       
      2615              30.       NO       
      2616              30.       NO       
      2617              30.       NO       
      2618              30.       NO       
      2619              30.       NO       
      2620              30.       NO       
      2621              30.       NO       
      2622              30.       NO       
      2623              30.       NO       
      2624              30.       NO       
      2625              30.       NO       
      2626              30.       NO       
      2627              30.       NO       
      2628              30.       NO       
      2629              30.       NO       
      2630              30.       NO       
      2631              30.       NO       
      2632              30.       NO       
      2633              30.       NO       
      2634              30.       NO       
      2635              30.       NO       
      2636              30.       NO       
      2637              30.       NO       
      2638              30.       NO       
      2639              30.       NO       
      2640              30.       NO       
      2641              30.       NO       
      2642              30.       NO       
      2643              30.       NO       
      2644              30.       NO       
      2645              30.       NO       
      2646              30.       NO       
      2647              30.       NO       
      2648              30.       NO       
      2649              30.       NO       
      2650              30.       NO       
      2651              30.       NO       
      2652              30.       NO       
      2653              30.       NO       
      2654              30.       NO       
      2655              30.       NO       
      2656              30.       NO       
      2657              30.       NO       
      2658              30.       NO       
      2659              30.       NO       
      2660              30.       NO       
      2661              30.       NO       
      2662              30.       NO       
      2663              30.       NO       
      2664              30.       NO       
      2665              30.       NO       
      2666              30.       NO       
      2667              30.       NO       
      2668              30.       NO       
      2669              30.       NO       
      2670              30.       NO       
      2671              30.       NO       
      2672              30.       NO       
      2673              30.       NO       
      2674              30.       NO       
      2675              30.       NO       
      2676              30.       NO       
      2677              30.       NO       
      2678              30.       NO       
      2679              30.       NO       
      2680              30.       NO       
      2681              30.       NO       
      2682              30.       NO       
      2683              30.       NO       
      2684              30.       NO       
      2685              30.       NO       
      2686              30.       NO       
      2687              30.       NO       
      2688              30.       NO       
      2689              30.       NO       
      2690              30.       NO       
      2691              30.       NO       
      2692              30.       NO       
      2693              30.       NO       
      2694              30.       NO       
      2695              30.       NO       
      2696              30.       NO       
      2697              30.       NO       
      2698              30.       NO       
      2699              30.       NO       
      2700              30.       NO       
      2701              30.       NO       
      2702              30.       NO       
      2703              30.       NO       
      2704              30.       NO       
      2713          41.4447       NO       
      2714          38.3108       NO       
      2715          35.5577       NO       
      2716          33.1307       NO       
      2717          30.9825       NO       
      2726          41.4447       NO       
      2727          38.3108       NO       
      2728          35.5577       NO       
      2729          33.1307       NO       
      2730          30.9825       NO       
      2739          41.4447       NO       
      2740          38.3108       NO       
      2741          35.5577       NO       
      2742          33.1307       NO       
      2743          30.9825       NO       
      2752          41.4447       NO       
      2753          38.3108       NO       
      2754          35.5577       NO       
      2755          33.1307       NO       
      2756          30.9825       NO       
      2765          41.4447       NO       
      2766          38.3108       NO       
      2767          35.5577       NO       
      2768          33.1307       NO       
      2769          30.9825       NO       
      2778          41.4447       NO       
      2779          38.3108       NO       
      2780          35.5577       NO       
      2781          33.1307       NO       
      2782          30.9825       NO       
      2791          41.4447       NO       
      2792          38.3108       NO       
      2793          35.5577       NO       
      2794          33.1307       NO       
      2795          30.9825       NO       
      2804          41.4447       NO       
      2805          38.3108       NO       
      2806          35.5577       NO       
      2807          33.1307       NO       
      2808          30.9825       NO       
      2817          41.4447       NO       
      2818          38.3108       NO       
      2819          35.5577       NO       
      2820          33.1307       NO       
      2821          30.9825       NO       
      2830          41.4447       NO       
      2831          38.3108       NO       
      2832          35.5577       NO       
      2833          33.1307       NO       
      2834          30.9825       NO       
      2843          41.4447       NO       
      2844          38.3108       NO       
      2845          35.5577       NO       
      2846          33.1307       NO       
      2847          30.9825       NO       
      2856          41.4447       NO       
      2857          38.3108       NO       
      2858          35.5577       NO       
      2859          33.1307       NO       
      2860          30.9825       NO       
      2861          30.9825       NO       
      2862          33.1307       NO       
      2863          35.5577       NO       
      2864          38.3108       NO       
      2865          41.4447       NO       
      2874          30.9825       NO       
      2875          33.1307       NO       
      2876          35.5577       NO       
      2877          38.3108       NO       
      2878          41.4447       NO       
      2887          30.9825       NO       
      2888          33.1307       NO       
      2889          35.5577       NO       
      2890          38.3108       NO       
      2891          41.4447       NO       
      2900          30.9825       NO       
      2901          33.1307       NO       
      2902          35.5577       NO       
      2903          38.3108       NO       
      2904          41.4447       NO       
      2913          30.9825       NO       
      2914          33.1307       NO       
      2915          35.5577       NO       
      2916          38.3108       NO       
      2917          41.4447       NO       
      2926          30.9825       NO       
      2927          33.1307       NO       
      2928          35.5577       NO       
      2929          38.3108       NO       
      2930          41.4447       NO       
      2939          30.9825       NO       
      2940          33.1307       NO       
      2941          35.5577       NO       
      2942          38.3108       NO       
      2943          41.4447       NO       
      2952          30.9825       NO       
      2953          33.1307       NO       
      2954          35.5577       NO       
      2955          38.3108       NO       
      2956          41.4447       NO       
      2965          30.9825       NO       
      2966          33.1307       NO       
      2967          35.5577       NO       
      2968          38.3108       NO       
      2969          41.4447       NO       
      2978          30.9825       NO       
      2979          33.1307       NO       
      2980          35.5577       NO       
      2981          38.3108       NO       
      2982          41.4447       NO       
      2991          30.9825       NO       
      2992          33.1307       NO       
      2993          35.5577       NO       
      2994          38.3108       NO       
      2995          41.4447       NO       
      3004          30.9825       NO       
      3005          33.1307       NO       
      3006          35.5577       NO       
      3007          38.3108       NO       
      3008          41.4447       NO       
      3045              30.       NO       
      3046              30.       NO       
      3047              30.       NO       
      3048              30.       NO       
      3049              30.       NO       
      3050              30.       NO       
      3051              30.       NO       
      3052              30.       NO       
      3053              30.       NO       
      3054              30.       NO       
      3055              30.       NO       
      3056              30.       NO       
      3057              30.       NO       
      3058              30.       NO       
      3059              30.       NO       
      3060              30.       NO       
      3061              30.       NO       
      3062              30.       NO       
      3063              30.       NO       
      3064              30.       NO       
      3065              30.       NO       
      3066              30.       NO       
      3067              30.       NO       
      3068              30.       NO       
      3237              30.       NO       
      3238              30.       NO       
      3239              30.       NO       
      3240              30.       NO       
      3241              30.       NO       
      3242              30.       NO       
      3243              30.       NO       
      3244              30.       NO       
      3245              30.       NO       
      3246              30.       NO       
      3247              30.       NO       
      3248              30.       NO       
      3249              30.       NO       
      3250              30.       NO       
      3251              30.       NO       
      3252              30.       NO       
      3253              30.       NO       
      3254              30.       NO       
      3255              30.       NO       
      3256              30.       NO       
      3257              30.       NO       
      3258              30.       NO       
      3259              30.       NO       
      3260              30.       NO       
      3261              30.       NO       
      3262              30.       NO       
      3263              30.       NO       
      3264              30.       NO       
      3265              30.       NO       
      3266              30.       NO       
      3267              30.       NO       
      3268              30.       NO       
      3269              30.       NO       
      3270              30.       NO       
      3271              30.       NO       
      3272              30.       NO       
      3273              30.       NO       
      3274              30.       NO       
      3275              30.       NO       
      3276              30.       NO       
      3277              30.       NO       
      3278              30.       NO       
      3279              30.       NO       
      3280              30.       NO       
      3281              30.       NO       
      3282              30.       NO       
      3283              30.       NO       
      3284              30.       NO       
      3285              30.       NO       
      3286              30.       NO       
      3287              30.       NO       
      3288              30.       NO       
      3289              30.       NO       
      3290              30.       NO       
      3291              30.       NO       
      3292              30.       NO       
      3293              30.       NO       
      3294              30.       NO       
      3295              30.       NO       
      3296              30.       NO       
      3297              30.       NO       
      3298              30.       NO       
      3299              30.       NO       
      3300              30.       NO       
      3301              30.       NO       
      3302              30.       NO       
      3303              30.       NO       
      3304              30.       NO       
      3305              30.       NO       
      3306              30.       NO       
      3307              30.       NO       
      3308              30.       NO       
      3309              30.       NO       
      3310              30.       NO       
      3311              30.       NO       
      3312              30.       NO       
      3313              30.       NO       
      3314              30.       NO       
      3315              30.       NO       
      3316              30.       NO       
      3317              30.       NO       
      3318              30.       NO       
      3319              30.       NO       
      3320              30.       NO       
      3321              30.       NO       
      3322              30.       NO       
      3323              30.       NO       
      3324              30.       NO       
      3325              30.       NO       
      3326              30.       NO       
      3327              30.       NO       
      3328              30.       NO       
      3329              30.       NO       
      3330              30.       NO       
      3331              30.       NO       
      3332              30.       NO       
      3333              30.       NO       
      3334              30.       NO       
      3335              30.       NO       
      3336              30.       NO       
      3337              30.       NO       
      3338              30.       NO       
      3339              30.       NO       
      3340              30.       NO       
      3341              30.       NO       
      3342              30.       NO       
      3343              30.       NO       
      3344              30.       NO       
      3345              30.       NO       
      3346              30.       NO       
      3347              30.       NO       
      3348              30.       NO       
      3349              30.       NO       
      3350              30.       NO       
      3351              30.       NO       
      3352              30.       NO       
      3353              30.       NO       
      3354              30.       NO       
      3355              30.       NO       
      3356              30.       NO       
      3357              30.       NO       
      3358              30.       NO       
      3359              30.       NO       
      3360              30.       NO       
      3361              30.       NO       
      3362              30.       NO       
      3363              30.       NO       
      3364              30.       NO       
      3365              30.       NO       
      3366              30.       NO       
      3367              30.       NO       
      3368              30.       NO       
      3369              30.       NO       
      3370              30.       NO       
      3371              30.       NO       
      3372              30.       NO       
      3373              30.       NO       
      3374              30.       NO       
      3375              30.       NO       
      3376              30.       NO       
      3377              30.       NO       
      3378              30.       NO       
      3379              30.       NO       
      3380              30.       NO       
      3389          41.4447       NO       
      3390          38.3108       NO       
      3391          35.5577       NO       
      3392          33.1307       NO       
      3393          30.9825       NO       
      3402          41.4447       NO       
      3403          38.3108       NO       
      3404          35.5577       NO       
      3405          33.1307       NO       
      3406          30.9825       NO       
      3415          41.4447       NO       
      3416          38.3108       NO       
      3417          35.5577       NO       
      3418          33.1307       NO       
      3419          30.9825       NO       
      3428          41.4447       NO       
      3429          38.3108       NO       
      3430          35.5577       NO       
      3431          33.1307       NO       
      3432          30.9825       NO       
      3441          41.4447       NO       
      3442          38.3108       NO       
      3443          35.5577       NO       
      3444          33.1307       NO       
      3445          30.9825       NO       
      3454          41.4447       NO       
      3455          38.3108       NO       
      3456          35.5577       NO       
      3457          33.1307       NO       
      3458          30.9825       NO       
      3467          41.4447       NO       
      3468          38.3108       NO       
      3469          35.5577       NO       
      3470          33.1307       NO       
      3471          30.9825       NO       
      3480          41.4447       NO       
      3481          38.3108       NO       
      3482          35.5577       NO       
      3483          33.1307       NO       
      3484          30.9825       NO       
      3493          41.4447       NO       
      3494          38.3108       NO       
      3495          35.5577       NO       
      3496          33.1307       NO       
      3497          30.9825       NO       
      3506          41.4447       NO       
      3507          38.3108       NO       
      3508          35.5577       NO       
      3509          33.1307       NO       
      3510          30.9825       NO       
      3519          41.4447       NO       
      3520          38.3108       NO       
      3521          35.5577       NO       
      3522          33.1307       NO       
      3523          30.9825       NO       
      3532          41.4447       NO       
      3533          38.3108       NO       
      3534          35.5577       NO       
      3535          33.1307       NO       
      3536          30.9825       NO       
      3537          30.9825       NO       
      3538          33.1307       NO       
      3539          35.5577       NO       
      3540          38.3108       NO       
      3541          41.4447       NO       
      3550          30.9825       NO       
      3551          33.1307       NO       
      3552          35.5577       NO       
      3553          38.3108       NO       
      3554          41.4447       NO       
      3563          30.9825       NO       
      3564          33.1307       NO       
      3565          35.5577       NO       
      3566          38.3108       NO       
      3567          41.4447       NO       
      3576          30.9825       NO       
      3577          33.1307       NO       
      3578          35.5577       NO       
      3579          38.3108       NO       
      3580          41.4447       NO       
      3589          30.9825       NO       
      3590          33.1307       NO       
      3591          35.5577       NO       
      3592          38.3108       NO       
      3593          41.4447       NO       
      3602          30.9825       NO       
      3603          33.1307       NO       
      3604          35.5577       NO       
      3605          38.3108       NO       
      3606          41.4447       NO       
      3615          30.9825       NO       
      3616          33.1307       NO       
      3617          35.5577       NO       
      3618          38.3108       NO       
      3619          41.4447       NO       
      3628          30.9825       NO       
      3629          33.1307       NO       
      3630          35.5577       NO       
      3631          38.3108       NO       
      3632          41.4447       NO       
      3641          30.9825       NO       
      3642          33.1307       NO       
      3643          35.5577       NO       
      3644          38.3108       NO       
      3645          41.4447       NO       
      3654          30.9825       NO       
      3655          33.1307       NO       
      3656          35.5577       NO       
      3657          38.3108       NO       
      3658          41.4447       NO       
      3667          30.9825       NO       
      3668          33.1307       NO       
      3669          35.5577       NO       
      3670          38.3108       NO       
      3671          41.4447       NO       
      3680          30.9825       NO       
      3681          33.1307       NO       
      3682          35.5577       NO       
      3683          38.3108       NO       
      3684          41.4447       NO       
      3721              30.       NO       
      3722              30.       NO       
      3723              30.       NO       
      3724              30.       NO       
      3725              30.       NO       
      3726              30.       NO       
      3727              30.       NO       
      3728              30.       NO       
      3729              30.       NO       
      3730              30.       NO       
      3731              30.       NO       
      3732              30.       NO       
      3733              30.       NO       
      3734              30.       NO       
      3735              30.       NO       
      3736              30.       NO       
      3737              30.       NO       
      3738              30.       NO       
      3739              30.       NO       
      3740              30.       NO       
      3741              30.       NO       
      3742              30.       NO       
      3743              30.       NO       
      3744              30.       NO       
      3913              30.       NO       
      3914              30.       NO       
      3915              30.       NO       
      3916              30.       NO       
      3917              30.       NO       
      3918              30.       NO       
      3919              30.       NO       
      3920              30.       NO       
      3921              30.       NO       
      3922              30.       NO       
      3923              30.       NO       
      3924              30.       NO       
      3925              30.       NO       
      3926              30.       NO       
      3927              30.       NO       
      3928              30.       NO       
      3929              30.       NO       
      3930              30.       NO       
      3931              30.       NO       
      3932              30.       NO       
      3933              30.       NO       
      3934              30.       NO       
      3935              30.       NO       
      3936              30.       NO       
      3937              30.       NO       
      3938              30.       NO       
      3939              30.       NO       
      3940              30.       NO       
      3941              30.       NO       
      3942              30.       NO       
      3943              30.       NO       
      3944              30.       NO       
      3945              30.       NO       
      3946              30.       NO       
      3947              30.       NO       
      3948              30.       NO       
      3949              30.       NO       
      3950              30.       NO       
      3951              30.       NO       
      3952              30.       NO       
      3953              30.       NO       
      3954              30.       NO       
      3955              30.       NO       
      3956              30.       NO       
      3957              30.       NO       
      3958              30.       NO       
      3959              30.       NO       
      3960              30.       NO       
      3961              30.       NO       
      3962              30.       NO       
      3963              30.       NO       
      3964              30.       NO       
      3965              30.       NO       
      3966              30.       NO       
      3967              30.       NO       
      3968              30.       NO       
      3969              30.       NO       
      3970              30.       NO       
      3971              30.       NO       
      3972              30.       NO       
      3973              30.       NO       
      3974              30.       NO       
      3975              30.       NO       
      3976              30.       NO       
      3977              30.       NO       
      3978              30.       NO       
      3979              30.       NO       
      3980              30.       NO       
[...]
      4723              30.       NO       
      4724              30.       NO       
      4725              30.       NO       
      4726              30.       NO       
      4727              30.       NO       
      4728              30.       NO       
      4729              30.       NO       
      4730              30.       NO       
      4731              30.       NO       
      4732              30.       NO       
      4741          41.4447       NO       
      4742          38.3108       NO       
      4743          35.5577       NO       
      4744          33.1307       NO       
      4745          30.9825       NO       
      4754          41.4447       NO       
      4755          38.3108       NO       
      4756          35.5577       NO       
      4757          33.1307       NO       
      4758          30.9825       NO       
      4767          41.4447       NO       
      4768          38.3108       NO       
      4769          35.5577       NO       
      4770          33.1307       NO       
      4771          30.9825       NO       
      4780          41.4447       NO       
      4781          38.3108       NO       
      4782          35.5577       NO       
      4783          33.1307       NO       
      4784          30.9825       NO       
      4793          41.4447       NO       
      4794          38.3108       NO       
      4795          35.5577       NO       
      4796          33.1307       NO       
      4797          30.9825       NO       
      4806          41.4447       NO       
      4807          38.3108       NO       
      4808          35.5577       NO       
      4809          33.1307       NO       
      4810          30.9825       NO       
      4819          41.4447       NO       
      4820          38.3108       NO       
      4821          35.5577       NO       
      4822          33.1307       NO       
      4823          30.9825       NO       
      4832          41.4447       NO       
      4833          38.3108       NO       
      4834          35.5577       NO       
      4835          33.1307       NO       
      4836          30.9825       NO       
      4845          41.4447       NO       
      4846          38.3108       NO       
      4847          35.5577       NO       
      4848          33.1307       NO       
      4849          30.9825       NO       
      4858          41.4447       NO       
      4859          38.3108       NO       
      4860          35.5577       NO       
      4861          33.1307       NO       
      4862          30.9825       NO       
      4871          41.4447       NO       
      4872          38.3108       NO       
      4873          35.5577       NO       
      4874          33.1307       NO       
      4875          30.9825       NO       
      4884          41.4447       NO       
      4885          38.3108       NO       
      4886          35.5577       NO       
      4887          33.1307       NO       
      4888          30.9825       NO       
      4889          30.9825       NO       
      4890          33.1307       NO       
      4891          35.5577       NO       
      4892          38.3108       NO       
      4893          41.4447       NO       
      4902          30.9825       NO       
      4903          33.1307       NO       
      4904          35.5577       NO       
      4905          38.3108       NO       
      4906          41.4447       NO       
      4915          30.9825       NO       
      4916          33.1307       NO       
      4917          35.5577       NO       
      4918          38.3108       NO       
      4919          41.4447       NO       
      4928          30.9825       NO       
      4929          33.1307       NO       
      4930          35.5577       NO       
      4931          38.3108       NO       
      4932          41.4447       NO       
      4941          30.9825       NO       
      4942          33.1307       NO       
      4943          35.5577       NO       
      4944          38.3108       NO       
      4945          41.4447       NO       
      4954          30.9825       NO       
      4955          33.1307       NO       
      4956          35.5577       NO       
      4957          38.3108       NO       
      4958          41.4447       NO       
      4967          30.9825       NO       
      4968          33.1307       NO       
      4969          35.5577       NO       
      4970          38.3108       NO       
      4971          41.4447       NO       
      4980          30.9825       NO       
      4981          33.1307       NO       
      4982          35.5577       NO       
      4983          38.3108       NO       
      4984          41.4447       NO       
      4993          30.9825       NO       
      4994          33.1307       NO       
      4995          35.5577       NO       
      4996          38.3108       NO       
      4997          41.4447       NO       
      5006          30.9825       NO       
      5007          33.1307       NO       
      5008          35.5577       NO       
      5009          38.3108       NO       
      5010          41.4447       NO       
      5019          30.9825       NO       
      5020          33.1307       NO       
      5021          35.5577       NO       
      5022          38.3108       NO       
      5023          41.4447       NO       
      5032          30.9825       NO       
      5033          33.1307       NO       
      5034          35.5577       NO       
      5035          38.3108       NO       
      5036          41.4447       NO       
      5073              30.       NO       
      5074              30.       NO       
      5075              30.       NO       
      5076              30.       NO       
      5077              30.       NO       
      5078              30.       NO       
      5079              30.       NO       
      5080              30.       NO       
      5081              30.       NO       
      5082              30.       NO       
      5083              30.       NO       
      5084              30.       NO       
      5085              30.       NO       
      5086              30.       NO       
      5087              30.       NO       
      5088              30.       NO       
      5089              30.       NO       
      5090              30.       NO       
      5091              30.       NO       
      5092              30.       NO       
      5093              30.       NO       
      5094              30.       NO       
      5095              30.       NO       
      5096              30.       NO       
      5265              30.       NO       
      5266              30.       NO       
      5267              30.       NO       
      5268              30.       NO       
      5269              30.       NO       
      5270              30.       NO       
      5271              30.       NO       
      5272              30.       NO       
      5273              30.       NO       
      5274              30.       NO       
      5275              30.       NO       
      5276              30.       NO       
      5277              30.       NO       
      5278              30.       NO       
      5279              30.       NO       
      5280              30.       NO       
      5281              30.       NO       
      5282              30.       NO       
      5283              30.       NO       
      5284              30.       NO       
      5285              30.       NO       
      5286              30.       NO       
      5287              30.       NO       
      5288              30.       NO       
      5289              30.       NO       
      5290              30.       NO       
      5291              30.       NO       
      5292              30.       NO       
      5293              30.       NO       
      5294              30.       NO       
      5295              30.       NO       
      5296              30.       NO       
      5297              30.       NO       
      5298              30.       NO       
      5299              30.       NO       
      5300              30.       NO       
      5301              30.       NO       
      5302              30.       NO       
      5303              30.       NO       
      5304              30.       NO       
      5305              30.       NO       
      5306              30.       NO       
      5307              30.       NO       
      5308              30.       NO       
      5309              30.       NO       
      5310              30.       NO       
      5311              30.       NO       
      5312              30.       NO       
      5313              30.       NO       
      5314              30.       NO       
      5315              30.       NO       
      5316              30.       NO       
      5317              30.       NO       
      5318              30.       NO       
      5319              30.       NO       
      5320              30.       NO       
      5321              30.       NO       
      5322              30.       NO       
      5323              30.       NO       
      5324              30.       NO       
      5325              30.       NO       
      5326              30.       NO       
      5327              30.       NO       
      5328              30.       NO       
      5329              30.       NO       
      5330              30.       NO       
      5331              30.       NO       
      5332              30.       NO       
      5333              30.       NO       
      5334              30.       NO       
      5335              30.       NO       
      5336              30.       NO       
      5337              30.       NO       
      5338              30.       NO       
      5339              30.       NO       
      5340              30.       NO       
      5341              30.       NO       
      5342              30.       NO       
      5343              30.       NO       
      5344              30.       NO       
      5345              30.       NO       
      5346              30.       NO       
      5347              30.       NO       
      5348              30.       NO       
      5349              30.       NO       
      5350              30.       NO       
      5351              30.       NO       
      5352              30.       NO       
      5353              30.       NO       
      5354              30.       NO       
      5355              30.       NO       
      5356              30.       NO       
      5357              30.       NO       
      5358              30.       NO       
      5359              30.       NO       
      5360              30.       NO       
      5361              30.       NO       
      5362              30.       NO       
      5363              30.       NO       
      5364              30.       NO       
      5365              30.       NO       
      5366              30.       NO       
      5367              30.       NO       
      5368              30.       NO       
      5369              30.       NO       
      5370              30.       NO       
      5371              30.       NO       
      5372              30.       NO       
      5373              30.       NO       
      5374              30.       NO       
      5375              30.       NO       
      5376              30.       NO       
      5377              30.       NO       
      5378              30.       NO       
      5379              30.       NO       
      5380              30.       NO       
      5381              30.       NO       
      5382              30.       NO       
      5383              30.       NO       
      5384              30.       NO       
      5385              30.       NO       
      5386              30.       NO       
      5387              30.       NO       
      5388              30.       NO       
      5389              30.       NO       
      5390              30.       NO       
      5391              30.       NO       
      5392              30.       NO       
      5393              30.       NO       
      5394              30.       NO       
      5395              30.       NO       
      5396              30.       NO       
      5397              30.       NO       
      5398              30.       NO       
      5399              30.       NO       
      5400              30.       NO       
      5401              30.       NO       
      5402              30.       NO       
      5403              30.       NO       
      5404              30.       NO       
      5405              30.       NO       
      5406              30.       NO       
      5407              30.       NO       
      5408              30.       NO       
  
  
  *STEP, NAME=HOMOGENISATION-0, PERTURBATION
  *OUTPUT, FIELD
  *OUTPUT, FIELD, VARIABLE=PRESELECT
  *OUTPUT, HISTORY, FREQUENCY=0
  *LOAD CASE, NAME=STATE-0-E11
  *LOAD CASE, NAME=STATE-0-E22
  *LOAD CASE, NAME=STATE-0-E12
  *LOAD CASE, NAME=STATE-0-K11
  *LOAD CASE, NAME=STATE-0-K22
  *LOAD CASE, NAME=STATE-0-K12
  *STEP, NAME=HOMOGENISATION-0, PERTURBATION

 ***WARNING: NODE SET SHEAR HAS NO MEMBERS AND WILL BE IGNORED.  NODES DEFINED 
             IN THIS SET MAY HAVE BEEN DELETED BECAUSE THEY WERE NOT CONNECTED 
             TO ANY ELEMENTS.
  *STEP, NAME=HOMOGENISATION-0, PERTURBATION
  *STATIC
  *OUTPUT, FIELD

 ***WARNING: DATACARDS ON THIS OPTION WILL BE IGNORED
  *ELEMENT OUTPUT, DIRECTIONS=YES
  *OUTPUT, FIELD, VARIABLE=PRESELECT
  *OUTPUT, HISTORY, FREQUENCY=0
  *LOAD CASE, NAME=STATE-0-E11
  *BOUNDARY, OP=NEW
  *LOAD CASE, NAME=STATE-0-E22
  *BOUNDARY, OP=NEW
  *LOAD CASE, NAME=STATE-0-E12
  *BOUNDARY, OP=NEW
  *LOAD CASE, NAME=STATE-0-K11
  *BOUNDARY, OP=NEW
  *LOAD CASE, NAME=STATE-0-K22
  *BOUNDARY, OP=NEW
  *LOAD CASE, NAME=STATE-0-K12
  *BOUNDARY, OP=NEW
  *END STEP

 ***WARNING: STRAIN OUTPUT REQUEST LE IS NOT VALID FOR SOME ELEMENTS IN THIS 
             ANALYSIS. THIS REQUEST IS SWITCHED TO THE STRAIN MEASURE, E.
  *BOUNDARY
  *STEP, NAME=HOMOGENISATION-0, PERTURBATION
  *STATIC
  *LOAD CASE, NAME=STATE-0-E11
  *BOUNDARY, OP=NEW
  *LOAD CASE, NAME=STATE-0-E22
  *BOUNDARY, OP=NEW
  *LOAD CASE, NAME=STATE-0-E12
  *BOUNDARY, OP=NEW
  *LOAD CASE, NAME=STATE-0-K11
  *BOUNDARY, OP=NEW
  *LOAD CASE, NAME=STATE-0-K22
  *BOUNDARY, OP=NEW
  *LOAD CASE, NAME=STATE-0-K12
  *BOUNDARY, OP=NEW
  *END STEP



                            P R O B L E M   S I Z E


          NUMBER OF ELEMENTS IS                                  5408
          NUMBER OF NODES IS                                    10184
          NUMBER OF NODES DEFINED BY THE USER                   10184
          TOTAL NUMBER OF VARIABLES IN THE MODEL                30552
          (DEGREES OF FREEDOM PLUS MAX NO. OF ANY LAGRANGE MULTIPLIER
           VARIABLES. INCLUDE *PRINT,SOLVE=YES TO GET THE ACTUAL NUMBER.)



                              END OF USER INPUT PROCESSING



     JOB TIME SUMMARY
       USER TIME (SEC)      =     0.30    
       SYSTEM TIME (SEC)    =     0.10    
       TOTAL CPU TIME (SEC) =     0.40    
       WALLCLOCK TIME (SEC) =            0
1

   Abaqus 2023                                  Date 31-Jul-2025   Time 15:40:10
   For use by BRISTOL under license from Dassault Systemes or its subsidiary.

                                                                                               STEP    1  INCREMENT    1
                                                                                          TIME COMPLETED IN THIS STEP   0.00    


                        S T E P       1     S T A T I C   A N A L Y S I S


                                                                                          

          FIXED TIME INCREMENTS
          TIME INCREMENT IS                                    2.220E-16
          TIME PERIOD IS                                       2.220E-16

     LINEAR EQUATION SOLVER TYPE         DIRECT SPARSE

     THIS IS A LINEAR PERTURBATION STEP.
     ALL LOADS ARE DEFINED AS CHANGE IN LOAD TO THE REFERENCE STATE
  
                   M E M O R Y   E S T I M A T E
  
 PROCESS      FLOATING PT       MINIMUM MEMORY        MEMORY TO
              OPERATIONS           REQUIRED          MINIMIZE I/O
             PER ITERATION           (MB)               (MB)
  
     1          4.84E+09               29                144
  
 NOTE:
      (1) SINCE ABAQUS DOES NOT PRE-ALLOCATE MEMORY AND ONLY ALLOCATES MEMORY AS NEEDED DURING THE ANALYSIS,
          THE MEMORY REQUIREMENT PRINTED HERE CAN ONLY BE VIEWED AS A GENERAL GUIDELINE BASED ON THE BEST
          KNOWLEDGE AVAILABLE AT THE BEGINNING OF A STEP BEFORE THE SOLUTION PROCESS HAS BEGUN.
      (2) THE ESTIMATE IS NORMALLY UPDATED AT THE BEGINNING OF EVERY STEP. IT IS THE MAXIMUM VALUE OF THE
          ESTIMATE FROM THE CURRENT STEP TO THE LAST STEP OF THE ANALYSIS, WITH UNSYMMETRIC SOLUTION TAKEN
          INTO ACCOUNT IF APPLICABLE. 
      (3) SINCE THE ESTIMATE IS BASED ON THE ACTIVE DEGREES OF FREEDOM IN THE FIRST ITERATION OF THE 
          CURRENT STEP, THE MEMORY ESTIMATE MIGHT BE SIGNIFICANTLY DIFFERENT THAN ACTUAL USAGE FOR 
          PROBLEMS WITH SUBSTANTIAL CHANGES IN ACTIVE DEGREES OF FREEDOM BETWEEN STEPS (OR EVEN WITHIN
          THE SAME STEP). EXAMPLES ARE: PROBLEMS WITH SIGNIFICANT CONTACT CHANGES, PROBLEMS WITH MODEL
          CHANGE, PROBLEMS WITH BOTH STATIC STEP AND STEADY STATE DYNAMIC PROCEDURES WHERE ACOUSTIC 
          ELEMENTS WILL ONLY BE ACTIVATED IN THE STEADY STATE DYNAMIC STEPS.
      (4) FOR MULTI-PROCESS EXECUTION, THE ESTIMATED VALUE OF FLOATING POINT OPERATIONS FOR EACH PROCESS
          IS BASED ON AN INITIAL SCHEDULING OF OPERATIONS AND MIGHT NOT REFLECT THE ACTUAL FLOATING 
          POINT OPERATIONS COMPLETED ON EACH PROCESS. OPERATIONS ARE DYNAMICALLY BALANCED DURING EXECUTION, 
          SO THE ACTUAL BALANCE OF OPERATIONS BETWEEN PROCESSES IS EXPECTED TO BE BETTER THAN THE ESTIMATE
          PRINTED HERE.
      (5) THE UPPER LIMIT OF MEMORY THAT CAN BE ALLOCATED BY ABAQUS WILL IN GENERAL DEPEND ON THE VALUE OF
          THE "MEMORY" PARAMETER AND THE AMOUNT OF PHYSICAL MEMORY AVAILABLE ON THE MACHINE. PLEASE SEE
          THE "ABAQUS ANALYSIS USER'S MANUAL" FOR MORE DETAILS. THE ACTUAL USAGE OF MEMORY AND OF DISK
          SPACE FOR SCRATCH DATA WILL DEPEND ON THIS UPPER LIMIT AS WELL AS THE MEMORY REQUIRED TO MINIMIZE
          I/O. IF THE MEMORY UPPER LIMIT IS GREATER THAN THE MEMORY REQUIRED TO MINIMIZE I/O, THEN THE ACTUAL
          MEMORY USAGE WILL BE CLOSE TO THE ESTIMATED "MEMORY TO MINIMIZE I/O" VALUE, AND THE SCRATCH DISK
          USAGE WILL BE CLOSE-TO-ZERO; OTHERWISE, THE ACTUAL MEMORY USED WILL BE CLOSE TO THE PREVIOUSLY
          MENTIONED MEMORY LIMIT, AND THE SCRATCH DISK USAGE WILL BE ROUGHLY PROPORTIONAL TO THE DIFFERENCE
          BETWEEN THE ESTIMATED "MEMORY TO MINIMIZE I/O" AND THE MEMORY UPPER LIMIT. HOWEVER ACCURATE
          ESTIMATE OF THE SCRATCH DISK SPACE IS NOT POSSIBLE.
      (6) USING "*RESTART, WRITE" CAN GENERATE A LARGE AMOUNT OF DATA WRITTEN IN THE WORK DIRECTORY.


          THE ANALYSIS HAS BEEN COMPLETED



                              ANALYSIS COMPLETE
                              WITH      5 WARNING MESSAGES ON THE DAT FILE
                              AND       3 WARNING MESSAGES ON THE MSG FILE
                                        3 WARNINGS ARE FOR NUMERICAL PROBLEMS



     JOB TIME SUMMARY
       USER TIME (SEC)      =     0.70    
       SYSTEM TIME (SEC)    =      0.0    
       TOTAL CPU TIME (SEC) =     0.70    
       WALLCLOCK TIME (SEC) =            0
